@<TRIPOS>MOLECULE
*****
 23 23 0 0 0
SMALL
GASTEIGER

@<TRIPOS>ATOM
      1 PT         -1.9779    0.0545   -0.0737 Pt      1  UNL1        0.0000
      2 N          -0.6947    1.5981    0.2059 N.2     1  UNL1        0.0000
      3 N          -0.5243   -1.3394   -0.3011 N.2     1  UNL1        0.0000
      4 N          -3.6441    1.3435    0.1111 N.4     1  UNL1        0.0000
      5 N          -3.4851   -1.4081   -0.3197 N.4     1  UNL1        0.0000
      6 N           0.3499   -1.3441    0.5442 N.2     1  UNL1        0.0000
      7 N           1.2170   -1.4266    1.2818 N.2     1  UNL1        0.0000
      8 N           0.2066    1.7009   -0.6040 N.2     1  UNL1        0.0000
      9 N           1.0850    1.8847   -1.3093 N.2     1  UNL1        0.0000
     10 C          -4.8258    0.6139   -0.3783 C.3     1  UNL1        0.0000
     11 C          -4.7575   -0.8130    0.1219 C.3     1  UNL1        0.0000
     12 H          -3.5057    2.2287   -0.3621 H       1  UNL1        0.0000
     13 H          -3.2699   -2.2747    0.1590 H       1  UNL1        0.0000
     14 H          -4.7850    0.6353   -1.4681 H       1  UNL1        0.0000
     15 H          -5.7569    1.0874   -0.0627 H       1  UNL1        0.0000
     16 H          -5.6184   -1.3845   -0.2289 H       1  UNL1        0.0000
     17 H          -4.7575   -0.8324    1.2125 H       1  UNL1        0.0000
     18 H          -3.4488   -1.5527   -1.3299 H       1  UNL1        0.0000
     19 H          -3.6630    1.4902    1.1214 H       1  UNL1        0.0000
     20 O          -2.1058    0.1552   -2.0904 O.3     1  UNL1        0.0000
     21 O          -2.1703   -0.0635    1.9371 O.3     1  UNL1        0.0000
     22 H          -1.2677   -0.1628   -2.4452 H       1  UNL1        0.0000
     23 H          -1.3884    0.3485    2.3223 H       1  UNL1        0.0000
@<TRIPOS>BOND
     1    22    20    1
     2    20     1    1
     3    14    10    1
     4    18     5    1
     5     9     8    2
     6     8     2    2
     7    10    15    1
     8    10     4    1
     9    10    11    1
    10    12     4    1
    11     5     1    1
    12     5    11    1
    13     5    13    1
    14     3     1    1
    15     3     6    2
    16    16    11    1
    17     1     4    1
    18     1     2    1
    19     1    21    1
    20     4    19    1
    21    11    17    1
    22     6     7    2
    23    21    23    1
