@<TRIPOS>MOLECULE
*****
 18 18 0 0 0
SMALL
GASTEIGER

@<TRIPOS>ATOM
      1 PT         -2.7228    0.4632    0.0106 Pt      1  UNL1        0.0000
      2 CL         -1.0677    1.7367    1.0139 Cl      1  UNL1        0.0000
      3 CL         -4.4985   -0.6358   -0.9956 Cl      1  UNL1        0.0000
      4 N          -3.9014    2.1665   -0.0373 N.4     1  UNL1        0.0000
      5 N          -1.5799   -1.2110    0.0529 N.pl3   1  UNL1        0.0000
      6 C          -0.2586   -1.1444   -0.1844 C.2     1  UNL1        0.0000
      7 C           0.5444   -2.2657   -0.1623 C.2     1  UNL1        0.0000
      8 C          -0.0177   -3.4987    0.1181 C.3     1  UNL1        0.0000
      9 C          -1.3779   -3.5633    0.3649 C.2     1  UNL1        0.0000
     10 C          -2.1294   -2.4077    0.3221 C.2     1  UNL1        0.0000
     11 H          -4.8020    1.9243   -0.4417 H       1  UNL1        0.0000
     12 H          -3.4682    2.8936   -0.5949 H       1  UNL1        0.0000
     13 H           0.1318   -0.1551   -0.3753 H       1  UNL1        0.0000
     14 H           1.6012   -2.1598   -0.3628 H       1  UNL1        0.0000
     15 H           0.5925   -4.3922    0.1438 H       1  UNL1        0.0000
     16 H          -1.8668   -4.5007    0.5894 H       1  UNL1        0.0000
     17 H          -3.1975   -2.4043    0.4858 H       1  UNL1        0.0000
     18 H          -4.0393    2.5397    0.8949 H       1  UNL1        0.0000
@<TRIPOS>BOND
     1     3     1    1
     2    12     4    1
     3    11     4    1
     4    13     6    1
     5    14     7    1
     6     6     7    2
     7     6     5    1
     8     7     8    1
     9     4     1    1
    10     4    18    1
    11     1     5    1
    12     1     2    1
    13     5    10    1
    14     8    15    1
    15     8     9    1
    16    10     9    2
    17    10    17    1
    18     9    16    1
