@<TRIPOS>MOLECULE
*****
 11 10 0 0 0
SMALL
GASTEIGER

@<TRIPOS>ATOM
      1 PT         -3.3619    0.2733    0.1097 Pt      1  UNL1        0.000676
      2 CL         -1.9761    2.0764    0.2375 Cl      1  UNL1       -0.339325
      3 CL         -1.7261   -1.3066    0.2318 Cl      1  UNL1       -0.341583
      4 N          -4.8013    1.7200    0.0033 N.4     1  UNL1       -0.413045
      5 N          -4.5733   -1.3685   -0.0028 N.4     1  UNL1       -0.425547
      6 H          -5.3330    1.7445   -0.8742 H       1  UNL1        0.266395
      7 H          -4.2300    2.5846    0.0556 H       1  UNL1        0.221574
      8 H          -3.8814   -2.1402    0.0468 H       1  UNL1        0.228340
      9 H          -5.0960   -1.4686   -0.8803 H       1  UNL1        0.268360
     10 H          -5.4675    1.7338    0.7838 H       1  UNL1        0.265917
     11 H          -5.2300   -1.4816    0.7777 H       1  UNL1        0.268238
@<TRIPOS>BOND
     1     9     5    1
     2     6     4    1
     3     5     8    1
     4     5     1    1
     5     5    11    1
     6     4     7    1
     7     4     1    1
     8     4    10    1
     9     1     3    1
    10     1     2    1
