@<TRIPOS>MOLECULE
*****
 11 10 0 0 0
SMALL
GASTEIGER

@<TRIPOS>ATOM
      1 PT         -3.3494    0.2741    0.1109 Pt      1  UNL1        0.008202
      2 CL         -1.9563    2.0673    0.2385 Cl      1  UNL1       -0.354389
      3 CL         -1.7069   -1.2943    0.2329 Cl      1  UNL1       -0.356253
      4 N          -4.8015    1.7133    0.0039 N.4     1  UNL1       -0.402838
      5 N          -4.5752   -1.3623   -0.0031 N.4     1  UNL1       -0.409164
      6 H          -5.3363    1.7273   -0.8597 H       1  UNL1        0.265245
      7 H          -4.2576    2.5805    0.0450 H       1  UNL1        0.224413
      8 H          -3.9128   -2.1417    0.0522 H       1  UNL1        0.228861
      9 H          -5.0889   -1.4584   -0.8741 H       1  UNL1        0.265410
     10 H          -5.4573    1.7262    0.7795 H       1  UNL1        0.264618
     11 H          -5.2345   -1.4648    0.7629 H       1  UNL1        0.265893
@<TRIPOS>BOND
     1     9     5    1
     2     6     4    1
     3     5     8    1
     4     5     1    1
     5     5    11    1
     6     4     7    1
     7     4     1    1
     8     4    10    1
     9     1     3    1
    10     1     2    1
