@<TRIPOS>MOLECULE
*****
 11 10 0 0 0
SMALL
GASTEIGER

@<TRIPOS>ATOM
      1 PT         -3.3466    0.2742    0.1109 Pt      1  UNL1       -0.025214
      2 CL         -1.9519    2.0590    0.2402 Cl      1  UNL1       -0.335299
      3 CL         -1.7028   -1.2850    0.2313 Cl      1  UNL1       -0.336708
      4 N          -4.7995    1.7126    0.0057 N.4     1  UNL1       -0.393247
      5 N          -4.5728   -1.3614   -0.0045 N.4     1  UNL1       -0.401190
      6 H          -5.3377    1.7214   -0.8591 H       1  UNL1        0.260152
      7 H          -4.2649    2.5878    0.0458 H       1  UNL1        0.222693
      8 H          -3.9187   -2.1502    0.0517 H       1  UNL1        0.226882
      9 H          -5.0879   -1.4524   -0.8785 H       1  UNL1        0.260975
     10 H          -5.4569    1.7195    0.7837 H       1  UNL1        0.259377
     11 H          -5.2370   -1.4583    0.7617 H       1  UNL1        0.261578
@<TRIPOS>BOND
     1     9     5    1
     2     6     4    1
     3     5     8    1
     4     5     1    1
     5     5    11    1
     6     4     7    1
     7     4     1    1
     8     4    10    1
     9     1     3    1
    10     1     2    1
