@<TRIPOS>MOLECULE
*****
 11 10 0 0 0
SMALL
GASTEIGER

@<TRIPOS>ATOM
      1 PT         -3.4382    0.2675    0.1025 Pt      1  UNL1       -0.049944
      2 CL         -2.0196    2.0577    0.2461 Cl      1  UNL1       -0.306893
      3 CL         -1.7710   -1.2957    0.2079 Cl      1  UNL1       -0.308746
      4 N          -4.7805    1.6687   -0.0302 N.4     1  UNL1       -0.401584
      5 N          -4.5661   -1.3151    0.0354 N.4     1  UNL1       -0.408415
      6 H          -5.0151    1.8166   -1.0052 H       1  UNL1        0.257124
      7 H          -4.2810    2.5077    0.2759 H       1  UNL1        0.207941
      8 H          -3.9053   -2.0698   -0.1675 H       1  UNL1        0.212109
      9 H          -5.3236   -1.3393   -0.6346 H       1  UNL1        0.269921
     10 H          -5.6364    1.5716    0.5001 H       1  UNL1        0.269700
     11 H          -4.9400   -1.5028    0.9586 H       1  UNL1        0.258788
@<TRIPOS>BOND
     1     6     4    1
     2     9     5    1
     3     8     5    1
     4     4     1    1
     5     4     7    1
     6     4    10    1
     7     5     1    1
     8     5    11    1
     9     1     3    1
    10     1     2    1
