@<TRIPOS>MOLECULE
*****
 17 16 0 0 0
SMALL
GASTEIGER

@<TRIPOS>ATOM
      1 PT         -1.9907   -0.1477   -0.0061 Pt      1  UNL1        0.012609
      2 N          -0.4495    1.2456    0.1633 N.4     1  UNL1       -0.420059
      3 N          -3.3819    1.4029   -0.0870 N.4     1  UNL1       -0.422274
      4 N          -3.5322   -1.5409   -0.1755 N.4     1  UNL1       -0.425968
      5 N          -0.5996   -1.6984    0.0752 N.4     1  UNL1       -0.426030
      6 H          -0.5451    1.8427    0.9952 H       1  UNL1        0.305234
      7 H          -0.3951    1.8771   -0.6466 H       1  UNL1        0.305506
      8 H          -4.0640    1.3626    0.6816 H       1  UNL1        0.305965
      9 H          -4.4727   -1.1356   -0.2514 H       1  UNL1        0.308144
     10 H          -3.5857   -2.1732    0.6340 H       1  UNL1        0.307076
     11 H           0.0859   -1.6564   -0.6903 H       1  UNL1        0.306860
     12 H          -1.0011   -2.6416    0.0131 H       1  UNL1        0.308327
     13 H          -3.9241    1.4038   -0.9610 H       1  UNL1        0.305987
     14 H           0.4910    0.8407    0.2413 H       1  UNL1        0.306796
     15 H          -0.0610   -1.7018    0.9514 H       1  UNL1        0.307334
     16 H          -2.9808    2.3465   -0.0295 H       1  UNL1        0.307196
     17 H          -3.4382   -2.1374   -1.0081 H       1  UNL1        0.307297
@<TRIPOS>BOND
     1    17     4    1
     2    13     3    1
     3    11     5    1
     4     7     2    1
     5     9     4    1
     6     4     1    1
     7     4    10    1
     8     3    16    1
     9     3     1    1
    10     3     8    1
    11     1     5    1
    12     1     2    1
    13    12     5    1
    14     5    15    1
    15     2    14    1
    16     2     6    1
