@<TRIPOS>MOLECULE
*****
 39 42 0 0 0
SMALL
GASTEIGER

@<TRIPOS>ATOM
      1 PT          6.3322    6.7382    2.0232 Pt      1  UNL1       -0.094489
      2 C           7.7398    6.6282    6.4196 C.ar    1  UNL1        0.420189
      3 C           8.4669    5.4750    6.5510 C.ar    1  UNL1       -0.627481
      4 H           8.9693    5.1328    7.4495 H       1  UNL1        0.241442
      5 C           8.8955    3.6132    4.7326 C.3     1  UNL1       -0.113184
      6 C           8.5735    3.2981    3.4135 C.2     1  UNL1       -0.088710
      7 H           8.9078    2.3624    2.9710 H       1  UNL1        0.150178
      8 C           7.8086    4.1862    2.6615 C.2     1  UNL1       -0.216140
      9 H           7.5214    3.9546    1.6372 H       1  UNL1        0.185074
     10 C           7.4171    7.6869    7.4191 C.3     1  UNL1       -0.433707
     11 H           7.8654    7.4405    8.3883 H       1  UNL1        0.150220
     12 H           6.3291    7.7789    7.5528 H       1  UNL1        0.133615
     13 H           7.8021    8.6652    7.0957 H       1  UNL1        0.131865
     14 CL          9.8455    2.5318    5.6808 Cl      1  UNL1       -0.029519
     15 C           9.9723   10.4181    1.7104 C.ar    1  UNL1       -0.637871
     16 C           8.4252    4.8042    5.2780 C.ar    1  UNL1        0.379285
     17 C           9.8943    9.0767    1.1942 C.ar    1  UNL1        0.365381
     18 C          10.7082    8.2185    0.4615 C.3     1  UNL1       -0.083463
     19 C          10.2193    6.9635    0.1047 C.2     1  UNL1       -0.109927
     20 C           8.9406    6.5859    0.5061 C.2     1  UNL1       -0.174816
     21 H           8.5350    5.6143    0.2327 H       1  UNL1        0.168809
     22 C           8.6125    8.5844    1.5465 C.ar    1  UNL1       -0.062511
     23 C           7.6594    5.6282    4.4173 C.ar    1  UNL1       -0.057878
     24 CL         12.2919    8.7066   -0.0137 Cl      1  UNL1       -0.039078
     25 N           7.2753    6.7319    5.1129 N.ar    1  UNL1       -0.337414
     26 H           6.5685    7.3694    4.7643 H       1  UNL1        0.309171
     27 N           7.3668    5.3599    3.1400 N.pl3   1  UNL1        0.188503
     28 N           7.9648    9.5516    2.2538 N.ar    1  UNL1       -0.307293
     29 H           6.9574    9.5269    2.3865 H       1  UNL1        0.279460
     30 N           8.1347    7.3709    1.2388 N.pl3   1  UNL1        0.147926
     31 I           4.1720    5.9709    3.1830 I       1  UNL1       -0.324418
     32 I           5.0659    8.4748    0.6048 I       1  UNL1       -0.314456
     33 C           8.7744   10.6808    2.3191 C.ar    1  UNL1        0.435406
     34 H          10.8137   11.0977    1.6271 H       1  UNL1        0.244441
     35 H          10.8261    6.2799   -0.4849 H       1  UNL1        0.150535
     36 C           8.2778   11.9225    2.9796 C.3     1  UNL1       -0.472358
     37 H           9.0450   12.7043    2.9410 H       1  UNL1        0.158107
     38 H           8.0218   11.7358    4.0328 H       1  UNL1        0.140610
     39 H           7.3742   12.2959    2.4755 H       1  UNL1        0.144497
@<TRIPOS>BOND
     1    35    19    1
     2    24    18    1
     3    19    18    1
     4    19    20    2
     5    21    20    1
     6    18    17    1
     7    20    30    1
     8    32     1    1
     9    17    22   ar
    10    17    15   ar
    11    30    22    1
    12    30     1    1
    13    22    28   ar
    14    34    15    1
    15     9     8    1
    16    15    33   ar
    17     1    27    1
    18     1    31    1
    19    28    33   ar
    20    28    29    1
    21    33    36    1
    22    39    36    1
    23     8    27    1
    24     8     6    2
    25    37    36    1
    26     7     6    1
    27    36    38    1
    28    27    23    1
    29     6     5    1
    30    23    25   ar
    31    23    16   ar
    32     5    16    1
    33     5    14    1
    34    26    25    1
    35    25     2   ar
    36    16     3   ar
    37     2     3   ar
    38     2    10    1
    39     3     4    1
    40    13    10    1
    41    10    12    1
    42    10    11    1
