@<TRIPOS>MOLECULE
*****
 25 26 0 0 0
SMALL
GASTEIGER

@<TRIPOS>ATOM
      1 PT          3.1026    8.1833    9.2350 Pt      1  UNL1        0.095507
      2 CL          2.8733    7.4577   11.3962 Cl      1  UNL1       -0.399375
      3 CL          4.9903    6.9610    8.8250 Cl      1  UNL1       -0.375323
      4 N           3.2164    8.8610    7.3414 N.pl3   1  UNL1       -0.061304
      5 C           4.0387    9.8392    6.9155 C.ar    1  UNL1        0.152656
      6 N           1.3766    9.2415    9.6258 N.4     1  UNL1       -0.462871
      7 H           0.5801    8.9448    9.0622 H       1  UNL1        0.264500
      8 H           1.1670    9.0271   10.6067 H       1  UNL1        0.256246
      9 H           1.4618   10.2524    9.5276 H       1  UNL1        0.262769
     10 H           5.7700    9.4418    9.2231 H       1  UNL1        0.166207
     11 C           3.2536    9.6822    4.6308 C.3     1  UNL1       -0.097741
     12 H           3.2591    9.9950    3.5858 H       1  UNL1        0.157294
     13 C           4.0853   10.2942    5.5662 C.ar    1  UNL1        0.099912
     14 C           2.4256    8.6561    5.0691 C.2     1  UNL1       -0.267460
     15 H           1.7651    8.1285    4.3827 H       1  UNL1        0.170140
     16 C           2.4405    8.2787    6.4111 C.2     1  UNL1        0.011913
     17 H           1.8170    7.4650    6.7778 H       1  UNL1        0.131815
     18 N           4.9337   10.5733    7.6494 N.ar    1  UNL1        0.098439
     19 C           5.0629   11.3452    5.5184 C.ar    1  UNL1       -0.383883
     20 C           5.5464   11.4701    6.7877 C.ar    1  UNL1       -0.153774
     21 C           5.3187   10.4248    9.0504 C.3     1  UNL1       -0.318387
     22 H           5.3653   11.9224    4.6509 H       1  UNL1        0.209867
     23 H           6.3070   12.1402    7.1791 H       1  UNL1        0.195041
     24 H           6.0354   11.2226    9.2782 H       1  UNL1        0.123315
     25 H           4.4457   10.5225    9.7059 H       1  UNL1        0.124496
@<TRIPOS>BOND
     1    12    11    1
     2    15    14    1
     3    11    14    1
     4    11    13    1
     5    22    19    1
     6    14    16    2
     7    19    13   ar
     8    19    20   ar
     9    13     5   ar
    10    16    17    1
    11    16     4    1
    12    20    23    1
    13    20    18   ar
    14     5     4    1
    15     5    18   ar
    16     4     1    1
    17    18    21    1
    18     3     1    1
    19    21    10    1
    20    21    24    1
    21    21    25    1
    22     7     6    1
    23     1     6    1
    24     1     2    1
    25     9     6    1
    26     6     8    1
