@<TRIPOS>MOLECULE
*****
 21 21 0 0 0
SMALL
GASTEIGER

@<TRIPOS>ATOM
      1 PT         -0.9899    0.7033    0.2632 Pt      1  UNL1       -0.095934
      2 CL         -1.7437    1.8019    2.0947 Cl      1  UNL1       -0.286472
      3 N          -2.6305   -0.5058    0.5055 N.4     1  UNL1       -0.326099
      4 N           0.5526    1.9624    0.1535 N.ar    1  UNL1        0.087473
      5 N          -0.2741   -0.3319   -1.3979 N.4     1  UNL1       -0.409202
      6 C           0.7007    2.7904   -0.8990 C.ar    1  UNL1        0.012548
      7 C           1.7273    3.7172   -0.9688 C.ar    1  UNL1       -0.201192
      8 C           2.6324    3.7994    0.0875 C.ar    1  UNL1        0.021937
      9 C           2.4700    2.9513    1.1784 C.ar    1  UNL1       -0.176046
     10 C           1.4158    2.0507    1.1830 C.ar    1  UNL1        0.015297
     11 H          -3.1028   -0.1428    1.3419 H       1  UNL1        0.240610
     12 H          -2.4286   -1.4906    0.6856 H       1  UNL1        0.263569
     13 H          -0.9168   -0.3354   -2.1925 H       1  UNL1        0.280917
     14 H          -0.0626   -1.3100   -1.1897 H       1  UNL1        0.283495
     15 H          -0.0488    2.7039   -1.6856 H       1  UNL1        0.133297
     16 H           1.8029    4.3705   -1.8368 H       1  UNL1        0.178798
     17 H           3.4486    4.5222    0.0627 H       1  UNL1        0.152762
     18 H           3.1444    2.9867    2.0328 H       1  UNL1        0.179623
     19 H           1.2247    1.3841    2.0217 H       1  UNL1        0.139108
     20 H           0.6002    0.0724   -1.7410 H       1  UNL1        0.239026
     21 H          -3.3111   -0.4668   -0.2551 H       1  UNL1        0.266486
@<TRIPOS>BOND
     1    13     5    1
     2    16     7    1
     3    20     5    1
     4    15     6    1
     5     5    14    1
     6     5     1    1
     7     7     6   ar
     8     7     8   ar
     9     6     4   ar
    10    21     3    1
    11    17     8    1
    12     8     9   ar
    13     4     1    1
    14     4    10   ar
    15     1     3    1
    16     1     2    1
    17     3    12    1
    18     3    11    1
    19     9    10   ar
    20     9    18    1
    21    10    19    1
