@<TRIPOS>MOLECULE
*****
 33 32 0 0 0
SMALL
GASTEIGER

@<TRIPOS>ATOM
      1 PT         -4.4685    0.2282    0.4060 Pt      1  UNL1        0.277138
      2 CL         -3.6061    2.1486    1.3222 Cl      1  UNL1       -0.301921
      3 CL         -3.0663   -1.0680    1.6843 Cl      1  UNL1       -0.301099
      4 N          -5.6017    1.3344   -0.9022 N.4     1  UNL1       -0.251091
      5 N          -5.0399   -1.5472   -0.4262 N.4     1  UNL1       -0.374255
      6 C          -6.2066    2.6559   -0.5654 C.3     1  UNL1        0.412447
      7 C          -6.2584   -2.2425    0.0631 C.3     1  UNL1        0.454039
      8 C          -7.4951   -1.4507   -0.3296 C.3     1  UNL1       -0.423732
      9 C          -6.2724   -3.6724   -0.4627 C.3     1  UNL1       -0.545526
     10 C          -7.3579    2.4590    0.4064 C.3     1  UNL1       -0.413017
     11 C          -6.6255    3.3484   -1.8572 C.3     1  UNL1       -0.532809
     12 O          -5.8737    0.0781    1.8053 O.3     1  UNL1       -0.656032
     13 O          -3.2652    0.2841   -1.1787 O.3     1  UNL1       -0.709006
     14 H          -6.3294    0.7499   -1.3156 H       1  UNL1        0.241053
     15 H          -4.2166   -2.1169   -0.2085 H       1  UNL1        0.267252
     16 H          -5.4083    3.2232   -0.0763 H       1  UNL1        0.026939
     17 H          -6.1687   -2.2192    1.1558 H       1  UNL1        0.031799
     18 H          -7.5523   -1.3123   -1.4235 H       1  UNL1        0.083521
     19 H          -7.4950   -0.4838    0.1868 H       1  UNL1        0.142775
     20 H          -8.3990   -1.9944   -0.0241 H       1  UNL1        0.123517
     21 H          -6.3410   -3.6919   -1.5623 H       1  UNL1        0.124122
     22 H          -7.1397   -4.2142   -0.0616 H       1  UNL1        0.155265
     23 H          -5.3658   -4.2176   -0.1617 H       1  UNL1        0.135126
     24 H          -8.1942    1.9308   -0.0821 H       1  UNL1        0.091080
     25 H          -7.7312    3.4363    0.7414 H       1  UNL1        0.111204
     26 H          -7.0232    1.8688    1.2694 H       1  UNL1        0.124771
     27 H          -7.4010    2.7697   -2.3852 H       1  UNL1        0.113931
     28 H          -5.7717    3.4892   -2.5368 H       1  UNL1        0.125465
     29 H          -7.0448    4.3386   -1.6317 H       1  UNL1        0.155809
     30 H          -5.4145    0.1962    2.6470 H       1  UNL1        0.372558
     31 H          -2.4215    0.6502   -0.8834 H       1  UNL1        0.384674
     32 H          -5.0341   -1.4501   -1.4442 H       1  UNL1        0.309766
     33 H          -4.8592    1.4395   -1.6094 H       1  UNL1        0.244237
@<TRIPOS>BOND
     1    28    11    1
     2    27    11    1
     3    11    29    1
     4    11     6    1
     5    33     4    1
     6    21     9    1
     7    32     5    1
     8    18     8    1
     9    14     4    1
    10    13    31    1
    11    13     1    1
    12     4     6    1
    13     4     1    1
    14     6    16    1
    15     6    10    1
    16     9    23    1
    17     9    22    1
    18     9     7    1
    19     5    15    1
    20     5     7    1
    21     5     1    1
    22     8    20    1
    23     8     7    1
    24     8    19    1
    25    24    10    1
    26     7    17    1
    27     1     2    1
    28     1     3    1
    29     1    12    1
    30    10    25    1
    31    10    26    1
    32    12    30    1
