@<TRIPOS>MOLECULE
*****
 29 28 0 0 0
SMALL
GASTEIGER

@<TRIPOS>ATOM
      1 PT         -1.4533    0.9124    0.0184 Pt      1  UNL1        0.016302
      2 CL         -1.1088    1.3507    2.2529 Cl      1  UNL1       -0.421372
      3 CL         -1.7666    0.4548   -2.2189 Cl      1  UNL1       -0.423263
      4 N          -2.4101    2.6864   -0.1900 N.4     1  UNL1       -0.426687
      5 N          -0.4754   -0.8484    0.2200 N.4     1  UNL1       -0.328905
      6 C           0.9777   -0.7552   -0.0480 C.3     1  UNL1        0.092691
      7 C           1.6895   -2.0923    0.1097 C.3     1  UNL1        0.120548
      8 C           3.1841   -1.9737   -0.1768 C.3     1  UNL1       -0.292814
      9 C          -3.8858    2.6249   -0.3879 C.3     1  UNL1        0.534094
     10 C          -4.4302    4.0171   -0.6875 C.3     1  UNL1       -0.555709
     11 C          -4.5329    1.9988    0.8384 C.3     1  UNL1       -0.495310
     12 H          -1.9939    3.1681   -0.9883 H       1  UNL1        0.283374
     13 H          -0.8949   -1.5231   -0.4222 H       1  UNL1        0.259080
     14 H           1.3804   -0.0047    0.6449 H       1  UNL1        0.046855
     15 H           1.0866   -0.3632   -1.0677 H       1  UNL1        0.048816
     16 H           1.2342   -2.8293   -0.5727 H       1  UNL1       -0.010243
     17 H           1.5327   -2.4696    1.1341 H       1  UNL1       -0.010012
     18 H           3.3621   -1.6217   -1.2040 H       1  UNL1        0.073346
     19 H           3.6898   -2.9419   -0.0601 H       1  UNL1        0.083277
     20 H           3.6621   -1.2586    0.5094 H       1  UNL1        0.073333
     21 H          -4.0303    1.9709   -1.2581 H       1  UNL1        0.001471
     22 H          -5.5105    3.9706   -0.8823 H       1  UNL1        0.148793
     23 H          -3.9479    4.4551   -1.5743 H       1  UNL1        0.123391
     24 H          -4.2705    4.6944    0.1665 H       1  UNL1        0.130958
     25 H          -4.3209    2.5930    1.7407 H       1  UNL1        0.133832
     26 H          -4.1480    0.9854    1.0071 H       1  UNL1        0.131283
     27 H          -5.6223    1.9517    0.7035 H       1  UNL1        0.122818
     28 H          -2.2028    3.2496    0.6391 H       1  UNL1        0.278528
     29 H          -0.6240   -1.1933    1.1699 H       1  UNL1        0.261526
@<TRIPOS>BOND
     1     3     1    1
     2    23    10    1
     3    21     9    1
     4    18     8    1
     5    15     6    1
     6    12     4    1
     7    22    10    1
     8    10     9    1
     9    10    24    1
    10    16     7    1
    11    13     5    1
    12     9     4    1
    13     9    11    1
    14     4     1    1
    15     4    28    1
    16     8    19    1
    17     8     7    1
    18     8    20    1
    19     6     7    1
    20     6     5    1
    21     6    14    1
    22     1     5    1
    23     1     2    1
    24     7    17    1
    25     5    29    1
    26    27    11    1
    27    11    26    1
    28    11    25    1
