@<TRIPOS>MOLECULE
*****
 25 26 0 0 0
SMALL
GASTEIGER

@<TRIPOS>ATOM
      1 PT         -2.2605    0.3214    0.0169 Pt      1  UNL1       -0.123591
      2 CL         -1.6525    0.8241    2.1874 Cl      1  UNL1       -0.422384
      3 CL         -2.8718   -0.1760   -2.1541 Cl      1  UNL1       -0.421998
      4 N          -3.5585    1.8430    0.0323 N.pl3   1  UNL1        0.185136
      5 N          -0.9617   -1.2012    0.0011 N.pl3   1  UNL1        0.201372
      6 C           0.2872   -1.0389    0.4725 C.2     1  UNL1       -0.044199
      7 C           1.2159   -2.0692    0.4700 C.2     1  UNL1       -0.177130
      8 C           0.8430   -3.3155   -0.0226 C.3     1  UNL1       -0.028771
      9 C          -0.4520   -3.4819   -0.5028 C.2     1  UNL1       -0.182422
     10 C          -1.3234   -2.4032   -0.4817 C.2     1  UNL1       -0.039404
     11 C          -4.3940    2.0178    1.0715 C.2     1  UNL1       -0.028779
     12 C          -5.3130    3.0559    1.1118 C.2     1  UNL1       -0.182472
     13 C          -5.3648    3.9553    0.0518 C.3     1  UNL1       -0.026097
     14 C          -4.4938    3.7760   -1.0179 C.2     1  UNL1       -0.182642
     15 C          -3.6111    2.7062   -0.9972 C.2     1  UNL1       -0.028324
     16 H           0.5142   -0.0515    0.8673 H       1  UNL1        0.158926
     17 H           2.2168   -1.8853    0.8580 H       1  UNL1        0.152635
     18 H           1.5513   -4.1450   -0.0321 H       1  UNL1        0.131880
     19 H          -0.7950   -4.4364   -0.8997 H       1  UNL1        0.154195
     20 H          -2.3384   -2.4673   -0.8665 H       1  UNL1        0.157568
     21 H          -4.2904    1.2998    1.8815 H       1  UNL1        0.155470
     22 H          -5.9724    3.1507    1.9735 H       1  UNL1        0.152141
     23 H          -6.0738    4.7844    0.0594 H       1  UNL1        0.131694
     24 H          -4.4932    4.4512   -1.8725 H       1  UNL1        0.152212
     25 H          -2.9258    2.5012   -1.8162 H       1  UNL1        0.154982
@<TRIPOS>BOND
     1     3     1    1
     2    24    14    1
     3    25    15    1
     4    14    15    2
     5    14    13    1
     6    15     4    1
     7    19     9    1
     8    20    10    1
     9     9    10    2
    10     9     8    1
    11    10     5    1
    12    18     8    1
    13     8     7    1
    14     5     1    1
    15     5     6    1
    16     1     4    1
    17     1     2    1
    18     4    11    1
    19    13    23    1
    20    13    12    1
    21     7     6    2
    22     7    17    1
    23     6    16    1
    24    11    12    2
    25    11    21    1
    26    12    22    1
