@<TRIPOS>MOLECULE
*****
 5 4 0 0 0
SMALL
GASTEIGER

@<TRIPOS>ATOM
      1 PT         -1.7699    1.0433   -0.0016 Pt      1  UNL1        0.585503
      2 CL         -0.0314    2.7606    0.0010 Cl      1  UNL1       -0.646183
      3 CL         -3.4872    2.7817    0.0086 Cl      1  UNL1       -0.646543
      4 CL         -3.5084   -0.6741   -0.0041 Cl      1  UNL1       -0.646323
      5 CL         -0.0526   -0.6952   -0.0121 Cl      1  UNL1       -0.646454
@<TRIPOS>BOND
     1     5     1    1
     2     4     1    1
     3     1     2    1
     4     1     3    1
