@<TRIPOS>MOLECULE
*****
 5 4 0 0 0
SMALL
GASTEIGER

@<TRIPOS>ATOM
      1 PT         -1.7699    1.0433   -0.0016 Pt      1  UNL1        0.299991
      2 CL         -0.1276    2.6656    0.0008 Cl      1  UNL1       -0.573970
      3 CL         -3.3922    2.6856    0.0080 Cl      1  UNL1       -0.575269
      4 CL         -3.4122   -0.5790   -0.0040 Cl      1  UNL1       -0.575095
      5 CL         -0.1476   -0.5990   -0.0115 Cl      1  UNL1       -0.575658
@<TRIPOS>BOND
     1     5     1    1
     2     4     1    1
     3     1     2    1
     4     1     3    1
