@<TRIPOS>MOLECULE
*****
 44 32 0 0 0
SMALL
GASTEIGER

@<TRIPOS>ATOM
      1 PT          3.2880    1.7924    4.7466 Pt      1  UNL1      0.54276333 
      2 PT          5.5829   13.7355    1.5802 Pt      2  UNL2      0.5429783 
      3 PT          1.6723    8.2208    4.6896 Pt      3  UNL3      0.556653770000001 
      4 PT          7.1986    7.3071    1.6372 Pt      4  UNL4      0.55654472 
      5 CL          4.0671   13.0520    5.1819 Cl      1  UNL1      -0.54384371  
      6 CL          4.8038    2.4759    1.1448 Cl      2  UNL2      -0.54408218  
      7 CL          1.3212    3.0041    4.3732 Cl      1  UNL1      -0.55453066  
      8 CL          7.5496   12.5238    1.9535 Cl      2  UNL2      -0.55436185  
      9 CL          2.9335    6.3882    5.3791 Cl      3  UNL3      -0.54503543  
     10 CL          5.9374    9.1397    0.9476 Cl      4  UNL4      -0.54487487  
     11 CL          3.5831    9.4149    4.0763 Cl      3  UNL3      -0.55273615  
     12 CL          5.2878    6.1130    2.2504 Cl      4  UNL4      -0.55289835  
     13 N           7.0191   13.9643    4.9717 N.3     3  UNL3      -1.11645766  
     14 N           1.8518    1.5636    1.3550 N.3     4  UNL4      -1.11662361  
     15 N           4.3512    3.5005    4.3135 N.4     1  UNL1      -1.16082965  
     16 N           4.5196   12.0274    2.0132 N.4     2  UNL2      -1.16064689  
     17 N           6.2604    7.2714    5.3333 N.3     5  UNL5      -1.1399681  
     18 N           2.6105    8.2564    0.9935 N.3     6  UNL6      -1.13985348  
     19 N           6.8469    9.9407    4.2313 N.3     7  UNL7      -1.09390452  
     20 N           2.0240    5.5872    2.0955 N.3     8  UNL8      -1.09407478  
     21 H           7.2983   13.5351    4.0749 H       7  UNL7      0.45912586 
     22 H           1.5726    1.9928    2.2518 H       8  UNL8      0.459127748 
     23 H           6.9121   13.2099    5.6640 H       7  UNL7      0.466247086 
     24 H           1.9588    2.3180    0.6627 H       8  UNL8      0.466224537 
     25 H           7.8057   14.5478    5.2850 H       7  UNL7      0.467370487 
     26 H           1.0652    0.9800    1.0418 H       8  UNL8      0.467410172 
     27 H           4.7357    3.4409    3.3577 H       1  UNL1      0.498982111 
     28 H           4.1352   12.0870    2.9691 H       2  UNL2      0.498970235 
     29 H           3.7458    4.3301    4.3741 H       1  UNL1      0.450517368 
     30 H           5.1250   11.1977    1.9526 H       2  UNL2      0.450532499 
     31 H           5.1201    3.6565    4.9778 H       1  UNL1      0.481567462 
     32 H           3.7508   11.8714    1.3489 H       2  UNL2      0.481545218 
     33 H           5.9008    7.6435    6.2261 H       9  UNL9      0.478839607 
     34 H           2.9700    7.8844    0.1007 H      10  UNL10     0.478869396 
     35 H           6.4689    6.2787    5.5005 H       9  UNL9      0.467192637 
     36 H           2.4020    9.2491    0.8263 H      10  UNL10     0.467212887 
     37 H           5.5049    7.3043    4.6356 H       9  UNL9      0.473803705 
     38 H           3.3660    8.2236    1.6912 H      10  UNL10     0.473776785 
     39 H           6.6201   10.4901    5.0767 H      11  UNL11     0.46301069 
     40 H           2.2507    5.0378    1.2501 H      12  UNL12     0.463036722 
     41 H           7.3558   10.5502    3.5748 H      11  UNL11     0.451497309 
     42 H           1.5150    4.9777    2.7519 H      12  UNL12     0.451484209 
     43 H           5.9646    9.6649    3.7825 H      11  UNL11     0.449856995 
     44 H           2.9063    5.8629    2.5442 H      12  UNL12     0.449868883 
@<TRIPOS>BOND
     1     1     7    1
     2     1    15    1
     3     2     8    1
     4     2    16    1
     5     3     9    1
     6     3    11    1
     7     4    10    1
     8     4    12    1
     9    13    21    1
    10    13    23    1
    11    13    25    1
    12    14    22    1
    13    14    24    1
    14    14    26    1
    15    15    27    1
    16    15    29    1
    17    15    31    1
    18    16    28    1
    19    16    30    1
    20    16    32    1
    21    17    33    1
    22    17    35    1
    23    17    37    1
    24    18    34    1
    25    18    36    1
    26    18    38    1
    27    19    39    1
    28    19    41    1
    29    19    43    1
    30    20    40    1
    31    20    42    1
    32    20    44    1
