@<TRIPOS>MOLECULE
*****
 22 21 0 0 0
SMALL
GASTEIGER

@<TRIPOS>ATOM
      1 PT          0.7716    0.6308   -0.0163 Pt      1  UNL1        0.895241
      2 N           1.9634    2.2586    0.3777 N.4     1  UNL1        0.010582
      3 N           2.3726   -0.6225    0.4779 N.2     1  UNL1       -0.664971
      4 N          -0.6478    2.0392   -0.5306 N.2     1  UNL1       -0.579815
      5 N          -0.5373   -0.9227   -0.4570 N.4     1  UNL1       -0.712091
      6 N           2.0657   -1.7904    0.4780 N.2     1  UNL1        0.682626
      7 N           1.7966   -2.9078    0.4838 N.2     1  UNL1       -0.487196
      8 N          -1.7012    1.9685    0.0686 N.2     1  UNL1        0.658664
      9 N          -2.7319    1.9644    0.5649 N.2     1  UNL1       -0.444553
     10 C           3.2630    2.3181   -0.2994 C.3     1  UNL1       -0.189373
     11 O           0.2250    0.8031    1.9225 O.3     1  UNL1       -0.786527
     12 O           1.2518    0.4958   -1.9793 O.3     1  UNL1       -0.723101
     13 H           2.0342    2.2593    1.3949 H       1  UNL1        0.174780
     14 H          -0.2290   -1.8369   -0.1310 H       1  UNL1        0.313605
     15 H          -0.5534   -0.9280   -1.4767 H       1  UNL1        0.339889
     16 H           3.0877    2.2970   -1.3716 H       1  UNL1        0.099941
     17 H           3.8443    1.4443   -0.0196 H       1  UNL1        0.107504
     18 H           3.8021    3.2245   -0.0277 H       1  UNL1        0.076420
     19 H           0.7170    0.1289    2.4050 H       1  UNL1        0.359758
     20 H           2.0733   -0.0102   -2.0063 H       1  UNL1        0.325971
     21 H          -1.4701   -0.7512   -0.0956 H       1  UNL1        0.356330
     22 H           1.3685    3.0448    0.1200 H       1  UNL1        0.186313
@<TRIPOS>BOND
     1    20    12    1
     2    12     1    1
     3    15     5    1
     4    16    10    1
     5     4     1    1
     6     4     8    2
     7     5    14    1
     8     5    21    1
     9     5     1    1
    10    10    18    1
    11    10    17    1
    12    10     2    1
    13     1     2    1
    14     1     3    1
    15     1    11    1
    16     8     9    2
    17    22     2    1
    18     2    13    1
    19     3     6    2
    20     6     7    2
    21    11    19    1
