@<TRIPOS>MOLECULE
*****
 33 32 0 0 0
SMALL
GASTEIGER

@<TRIPOS>ATOM
      1 PT         -4.1899    0.2444    0.0188 Pt      1  UNL1        0.411575
      2 CL         -3.0549    2.2154    0.4450 Cl      1  UNL1       -0.302197
      3 CL         -2.6177   -1.0596    1.1019 Cl      1  UNL1       -0.295388
      4 N          -5.4954    1.5264   -1.0322 N.4     1  UNL1       -0.220070
      5 N          -5.0771   -1.6139   -0.4161 N.4     1  UNL1       -0.253372
      6 C          -6.3554    2.4565   -0.2399 C.3     1  UNL1        0.427567
      7 C          -6.4684   -1.9247    0.0122 C.3     1  UNL1        0.464870
      8 C          -7.4291   -1.6137   -1.1117 C.3     1  UNL1       -0.419835
      9 C          -6.5637   -3.3658    0.4673 C.3     1  UNL1       -0.487041
     10 C          -7.6334    1.7568    0.1521 C.3     1  UNL1       -0.457142
     11 C          -6.5883    3.7282   -1.0264 C.3     1  UNL1       -0.522759
     12 O          -5.2746    0.4032    1.7172 O.3     1  UNL1       -0.731074
     13 O          -3.3711    0.0250   -1.8185 O.3     1  UNL1       -0.772553
     14 H          -6.0442    1.0296   -1.7294 H       1  UNL1        0.252718
     15 H          -4.4103   -2.2192    0.0656 H       1  UNL1        0.179625
     16 H          -5.7756    2.6713    0.6593 H       1  UNL1        0.022720
     17 H          -6.6481   -1.2656    0.8664 H       1  UNL1        0.006190
     18 H          -7.2725   -2.2810   -1.9615 H       1  UNL1        0.102250
     19 H          -7.3281   -0.5888   -1.4645 H       1  UNL1        0.089262
     20 H          -8.4584   -1.7361   -0.7796 H       1  UNL1        0.117566
     21 H          -6.3386   -4.0574   -0.3465 H       1  UNL1        0.115007
     22 H          -7.5697   -3.5860    0.8210 H       1  UNL1        0.134322
     23 H          -5.8745   -3.5650    1.2875 H       1  UNL1        0.131065
     24 H          -8.2367    1.5046   -0.7242 H       1  UNL1        0.085540
     25 H          -8.2350    2.4090    0.7823 H       1  UNL1        0.133207
     26 H          -7.4184    0.8559    0.7240 H       1  UNL1        0.150066
     27 H          -7.1251    3.5334   -1.9574 H       1  UNL1        0.114165
     28 H          -5.6467    4.2210   -1.2681 H       1  UNL1        0.128518
     29 H          -7.1859    4.4265   -0.4427 H       1  UNL1        0.154795
     30 H          -4.6392    0.4119    2.4419 H       1  UNL1        0.377533
     31 H          -2.4169    0.1079   -1.7203 H       1  UNL1        0.389091
     32 H          -4.9173   -1.7496   -1.4145 H       1  UNL1        0.260393
     33 H          -4.7881    2.0477   -1.5499 H       1  UNL1        0.213386
@<TRIPOS>BOND
     1    18     8    1
     2    27    11    1
     3    13    31    1
     4    13     1    1
     5    14     4    1
     6    33     4    1
     7    19     8    1
     8    32     5    1
     9    28    11    1
    10     8    20    1
    11     8     7    1
    12     4     6    1
    13     4     1    1
    14    11    29    1
    15    11     6    1
    16    24    10    1
    17     5     7    1
    18     5     1    1
    19     5    15    1
    20    21     9    1
    21     6    10    1
    22     6    16    1
    23     7     9    1
    24     7    17    1
    25     1     2    1
    26     1     3    1
    27     1    12    1
    28    10    26    1
    29    10    25    1
    30     9    22    1
    31     9    23    1
    32    12    30    1
