@<TRIPOS>MOLECULE
*****
 33 35 0 0 0
SMALL
GASTEIGER

@<TRIPOS>ATOM
      1 PT         -0.8211    0.9371    0.4413 Pt      1  UNL1       -0.084726
      2 CL         -0.4774    0.6746    2.6685 Cl      1  UNL1       -0.255755
      3 N          -2.3052   -0.5231    0.7010 N.4     1  UNL1       -0.381432
      4 N          -1.1041    1.1456   -1.6636 N.4     1  UNL1       -0.346799
      5 N           0.6862    2.3177    0.3504 N.pl3   1  UNL1       -0.033136
      6 C           0.4993    3.6146   -0.1165 C.ar    1  UNL1        0.309180
      7 C           1.6009    4.4914   -0.2715 C.ar    1  UNL1       -0.082370
      8 C           2.9110    4.0508    0.1248 C.3     1  UNL1        0.066450
      9 C           3.0277    2.7520    0.6736 C.2     1  UNL1        0.203393
     10 C           1.8802    1.9380    0.7454 C.2     1  UNL1       -0.114475
     11 C           4.0705    4.8307    0.0264 C.2     1  UNL1       -0.160015
     12 C           5.2794    4.3437    0.4653 C.2     1  UNL1       -0.065242
     13 C           5.3857    3.0625    1.0196 C.2     1  UNL1       -0.060608
     14 C           4.2713    2.2724    1.1209 C.2     1  UNL1       -0.220181
     15 C          -0.7971    4.0634   -0.4063 C.ar    1  UNL1       -0.167813
     16 C          -1.0064    5.3322   -0.8888 C.ar    1  UNL1       -0.100950
     17 C           0.0769    6.1889   -1.0912 C.ar    1  UNL1       -0.105484
     18 C           1.3478    5.7760   -0.7780 C.ar    1  UNL1       -0.118380
     19 H          -2.1708   -1.3843    0.1822 H       1  UNL1        0.270146
     20 H          -3.2544   -0.2052    0.5359 H       1  UNL1        0.278000
     21 H          -0.5698    0.4606   -2.1886 H       1  UNL1        0.266802
     22 H          -2.0678    1.0658   -1.9704 H       1  UNL1        0.267683
     23 H           1.9585    0.9327    1.1420 H       1  UNL1        0.136396
     24 H           4.0236    5.8266   -0.3909 H       1  UNL1        0.137319
     25 H           6.1629    4.9633    0.3841 H       1  UNL1        0.132683
     26 H           6.3450    2.7021    1.3648 H       1  UNL1        0.132796
     27 H           4.3306    1.2779    1.5451 H       1  UNL1        0.157595
     28 H          -1.6314    3.4068   -0.1871 H       1  UNL1        0.104358
     29 H          -2.0129    5.6728   -1.0912 H       1  UNL1        0.137449
     30 H          -0.0870    7.1872   -1.4734 H       1  UNL1        0.141078
     31 H           2.1729    6.4615   -0.9112 H       1  UNL1        0.138457
     32 H          -2.2342   -0.7526    1.6937 H       1  UNL1        0.244247
     33 H          -0.7863    2.0638   -1.9663 H       1  UNL1        0.173333
@<TRIPOS>BOND
     1    21     4    1
     2    22     4    1
     3    33     4    1
     4     4     1    1
     5    30    17    1
     6    17    16   ar
     7    17    18   ar
     8    29    16    1
     9    31    18    1
    10    16    15   ar
    11    18     7   ar
    12    15    28    1
    13    15     6   ar
    14    24    11    1
    15     7     6   ar
    16     7     8    1
    17     6     5    1
    18    11     8    1
    19    11    12    2
    20     8     9    1
    21    19     3    1
    22     5     1    1
    23     5    10    1
    24    25    12    1
    25     1     3    1
    26     1     2    1
    27    12    13    1
    28    20     3    1
    29     9    10    2
    30     9    14    1
    31     3    32    1
    32    10    23    1
    33    13    14    2
    34    13    26    1
    35    14    27    1
