@<TRIPOS>MOLECULE
*****
 25 26 0 0 0
SMALL
GASTEIGER

@<TRIPOS>ATOM
      1 PT         -0.4362    0.2644   -0.0079 Pt      1  UNL1       -0.020272
      2 N          -1.4940    2.0222    0.4599 N.4     1  UNL1       -0.491770
      3 N          -1.7725   -1.3093    0.4069 N.4     1  UNL1       -0.347913
      4 O           0.8941    1.6414   -0.5329 O.3     1  UNL1       -0.367647
      5 O           0.6535   -1.2975   -0.5746 O.3     1  UNL1       -0.399750
      6 C           2.1769    1.3521   -0.6720 C.2     1  UNL1        0.461763
      7 C           1.9683   -1.2315   -0.6865 C.2     1  UNL1        0.541854
      8 C           2.6558    0.0139   -0.1251 C.3     1  UNL1        0.357016
      9 O           2.9416    2.1637   -1.1371 O.2     1  UNL1       -0.527020
     10 O           2.5919   -2.1590   -1.1463 O.2     1  UNL1       -0.535169
     11 C           2.6385   -0.0597    1.4361 C.3     1  UNL1       -0.272006
     12 C           4.0370   -0.6809    1.3776 C.3     1  UNL1        0.164465
     13 C           4.1769   -0.1604   -0.0562 C.3     1  UNL1       -0.361353
     14 H          -0.8099    2.7253    0.1761 H       1  UNL1        0.273680
     15 H          -1.7028    2.1704    1.4400 H       1  UNL1        0.265689
     16 H          -2.0162   -1.4483    1.3803 H       1  UNL1        0.233037
     17 H          -1.2101   -2.1080    0.1090 H       1  UNL1        0.237895
     18 H           1.8275   -0.6282    1.8946 H       1  UNL1        0.020064
     19 H           2.6423    0.9419    1.8684 H       1  UNL1        0.074056
     20 H           3.9925   -1.7691    1.4065 H       1  UNL1        0.006061
     21 H           4.7640   -0.3457    2.1164 H       1  UNL1       -0.026743
     22 H           4.6622    0.8118   -0.1106 H       1  UNL1        0.107270
     23 H           4.6100   -0.8291   -0.7955 H       1  UNL1        0.077496
     24 H          -2.3437    2.1882   -0.0665 H       1  UNL1        0.286946
     25 H          -2.6308   -1.3184   -0.1316 H       1  UNL1        0.242351
@<TRIPOS>BOND
     1    10     7    2
     2     9     6    2
     3    23    13    1
     4     7     5    1
     5     7     8    1
     6     6     4    1
     7     6     8    1
     8     5     1    1
     9     4     1    1
    10    25     3    1
    11     8    13    1
    12     8    11    1
    13    22    13    1
    14    24     2    1
    15    13    12    1
    16     1     3    1
    17     1     2    1
    18    17     3    1
    19    14     2    1
    20     3    16    1
    21     2    15    1
    22    12    20    1
    23    12    11    1
    24    12    21    1
    25    11    19    1
    26    11    18    1
