@<TRIPOS>MOLECULE
*****
 41 41 0 0 0
SMALL
GASTEIGER

@<TRIPOS>ATOM
      1 PT         -2.9147   -0.4104    0.3605 Pt      1  UNL1        0.578087
      2 CL         -1.3533    1.2172   -0.1649 Cl      1  UNL1       -0.281977
      3 CL         -1.5751   -2.2434   -0.0447 Cl      1  UNL1       -0.276699
      4 N          -4.1392    1.2412    0.7865 N.4     1  UNL1       -0.492038
      5 N          -4.3170   -1.8863    0.9359 N.4     1  UNL1       -0.484138
      6 C          -5.3497   -2.3516   -0.0243 C.3     1  UNL1        0.224678
      7 C          -6.4089   -1.2885   -0.2348 C.3     1  UNL1       -0.045546
      8 C          -7.4680   -1.7759   -1.2112 C.3     1  UNL1       -0.077330
      9 C          -8.0807   -3.0921   -0.7627 C.3     1  UNL1       -0.015592
     10 C          -7.0102   -4.1470   -0.5347 C.3     1  UNL1       -0.030228
     11 C          -5.9576   -3.6618    0.4508 C.3     1  UNL1       -0.123526
     12 O          -3.7508   -0.3753   -1.4984 O.3     1  UNL1       -0.471399
     13 O          -2.6552   -0.3400    2.3905 O.3     1  UNL1       -0.551162
     14 C          -1.5955   -0.3915    3.1981 C.2     1  UNL1        0.769331
     15 C          -0.2522   -0.7136    2.6250 C.3     1  UNL1       -0.497703
     16 C          -3.3527   -0.7194   -2.7164 C.2     1  UNL1        0.736967
     17 C          -1.8956   -0.8641   -3.0261 C.3     1  UNL1       -0.557385
     18 O          -1.7863   -0.2076    4.3773 O.2     1  UNL1       -0.547154
     19 O          -4.2148   -0.8932   -3.5510 O.2     1  UNL1       -0.545093
     20 H          -5.0476    1.2132    0.3375 H       1  UNL1        0.284548
     21 H          -3.6205    2.0519    0.4527 H       1  UNL1        0.273167
     22 H          -3.6874   -2.6593    1.1564 H       1  UNL1        0.263060
     23 H          -4.8237   -2.5142   -0.9687 H       1  UNL1        0.054083
     24 H          -5.9369   -0.3902   -0.6332 H       1  UNL1        0.032836
     25 H          -6.8698   -1.0453    0.7325 H       1  UNL1        0.014915
     26 H          -6.9980   -1.8965   -2.1918 H       1  UNL1        0.058672
     27 H          -8.2367   -1.0126   -1.3352 H       1  UNL1        0.035043
     28 H          -8.8058   -3.4421   -1.4983 H       1  UNL1        0.022285
     29 H          -8.6389   -2.9370    0.1670 H       1  UNL1        0.017613
     30 H          -6.5240   -4.3825   -1.4863 H       1  UNL1        0.033482
     31 H          -7.4509   -5.0783   -0.1775 H       1  UNL1        0.031689
     32 H          -5.1731   -4.4114    0.5810 H       1  UNL1        0.043392
     33 H          -6.4146   -3.5097    1.4361 H       1  UNL1        0.042684
     34 H          -0.0817   -0.2386    1.6623 H       1  UNL1        0.131886
     35 H          -0.1818   -1.7893    2.4654 H       1  UNL1        0.139888
     36 H           0.5175   -0.4209    3.3326 H       1  UNL1        0.138529
     37 H          -1.2523   -0.3320   -2.3321 H       1  UNL1        0.147607
     38 H          -1.7215   -0.5206   -4.0427 H       1  UNL1        0.157949
     39 H          -1.6301   -1.9200   -2.9885 H       1  UNL1        0.157320
     40 H          -4.2293    1.3013    1.7976 H       1  UNL1        0.300571
     41 H          -4.7290   -1.5931    1.8207 H       1  UNL1        0.306687
@<TRIPOS>BOND
     1    38    17    1
     2    19    16    2
     3    17    39    1
     4    17    16    1
     5    17    37    1
     6    16    12    1
     7    26     8    1
     8    12     1    1
     9    28     9    1
    10    30    10    1
    11    27     8    1
    12     8     9    1
    13     8     7    1
    14    23     6    1
    15     9    10    1
    16     9    29    1
    17    24     7    1
    18    10    31    1
    19    10    11    1
    20     7     6    1
    21     7    25    1
    22     2     1    1
    23     3     1    1
    24     6    11    1
    25     6     5    1
    26    20     4    1
    27     1     4    1
    28     1     5    1
    29     1    13    1
    30    11    32    1
    31    11    33    1
    32    21     4    1
    33     4    40    1
    34     5    22    1
    35     5    41    1
    36    34    15    1
    37    13    14    1
    38    35    15    1
    39    15    14    1
    40    15    36    1
    41    14    18    2
