@<TRIPOS>MOLECULE
*****
 29 28 0 0 0
SMALL
GASTEIGER

@<TRIPOS>ATOM
      1 PT         -2.5468    0.5597   -0.0262 Pt      1  UNL1        0.050565
      2 CL         -1.0614    2.0666    0.9209 Cl      1  UNL1       -0.397389
      3 CL         -3.9354   -0.9826   -1.0591 Cl      1  UNL1       -0.398941
      4 N          -3.8302    2.0969   -0.5996 N.4     1  UNL1       -0.465765
      5 N          -1.2439   -0.9599    0.5128 N.4     1  UNL1       -0.501594
      6 H          -4.2535    1.7866   -1.4712 H       1  UNL1        0.280241
      7 H          -3.2365    2.8938   -0.8153 H       1  UNL1        0.290577
      8 H          -1.7729   -1.6590    1.0264 H       1  UNL1        0.300205
      9 H          -0.5773   -0.5439    1.1639 H       1  UNL1        0.284464
     10 C          -0.5044   -1.6321   -0.5976 C.3     1  UNL1        0.574975
     11 C           0.3785   -0.6224   -1.2925 C.3     1  UNL1       -0.485777
     12 C           0.2736   -2.8178   -0.0665 C.3     1  UNL1       -0.540390
     13 C          -4.9168    2.5431    0.3306 C.3     1  UNL1        0.464832
     14 C          -4.3152    3.0904    1.6028 C.3     1  UNL1       -0.428670
     15 C          -5.8766    1.4053    0.5845 C.3     1  UNL1       -0.419035
     16 H          -1.2843   -1.9733   -1.2823 H       1  UNL1       -0.012703
     17 H          -0.2091    0.2047   -1.6877 H       1  UNL1        0.117385
     18 H           0.9157   -1.0938   -2.1136 H       1  UNL1        0.120698
     19 H           1.1151   -0.2039   -0.6038 H       1  UNL1        0.131868
     20 H           1.0415   -2.5000    0.6416 H       1  UNL1        0.124271
     21 H           0.7746   -3.3393   -0.8803 H       1  UNL1        0.142772
     22 H          -0.3749   -3.5367    0.4346 H       1  UNL1        0.120386
     23 H          -5.4487    3.3495   -0.1887 H       1  UNL1       -0.040661
     24 H          -5.1028    3.4860    2.2424 H       1  UNL1        0.109466
     25 H          -3.5996    3.8884    1.4087 H       1  UNL1        0.117007
     26 H          -3.7858    2.3074    2.1452 H       1  UNL1        0.120493
     27 H          -6.7053    1.7525    1.1999 H       1  UNL1        0.107606
     28 H          -5.3751    0.5888    1.1038 H       1  UNL1        0.117759
     29 H          -6.2841    0.9979   -0.3399 H       1  UNL1        0.115356
@<TRIPOS>BOND
     1    18    11    1
     2    17    11    1
     3     6     4    1
     4    11    19    1
     5    11    10    1
     6    16    10    1
     7     3     1    1
     8    21    12    1
     9     7     4    1
    10     4     1    1
    11     4    13    1
    12    10    12    1
    13    10     5    1
    14    29    15    1
    15    23    13    1
    16    12    22    1
    17    12    20    1
    18     1     5    1
    19     1     2    1
    20    13    15    1
    21    13    14    1
    22     5     8    1
    23     5     9    1
    24    15    28    1
    25    15    27    1
    26    25    14    1
    27    14    26    1
    28    14    24    1
