@<TRIPOS>MOLECULE
*****
 29 31 0 0 0
SMALL
GASTEIGER

@<TRIPOS>ATOM
      1 C          -2.5736    0.5043    0.0468 C.3     1  UNL1       -0.003702
      2 C          -1.3619    0.9364    0.8577 C.3     1  UNL1       -0.122547
      3 C          -0.0877    0.3136    0.3174 C.3     1  UNL1        0.075738
      4 C          -0.1993   -1.2053    0.2593 C.3     1  UNL1        0.078408
      5 C          -1.4081   -1.6356   -0.5511 C.3     1  UNL1       -0.146854
      6 C          -2.6848   -1.0105   -0.0108 C.3     1  UNL1        0.007466
      7 N           1.1220    0.6631    1.1005 N.4     1  UNL1       -0.441518
      8 N           1.0825   -1.7483   -0.2515 N.4     1  UNL1       -0.435834
      9 PT          2.6704   -0.6655    0.5983 Pt      1  UNL1        0.010874
     10 O           4.1530    0.3818    1.4007 O.3     1  UNL1       -0.420841
     11 O           4.1140   -1.9414    0.1214 O.3     1  UNL1       -0.421897
     12 C           5.3350   -0.1951    1.2656 C.2     1  UNL1        0.571380
     13 C           5.3116   -1.5514    0.5232 C.2     1  UNL1        0.574296
     14 O           6.3523    0.2901    1.6840 O.2     1  UNL1       -0.523923
     15 O           6.3089   -2.1945    0.3302 O.2     1  UNL1       -0.525109
     16 H          -2.4888    0.9025   -0.9692 H       1  UNL1        0.024452
     17 H          -3.4796    0.9402    0.4677 H       1  UNL1        0.031379
     18 H          -1.4876    0.6252    1.9015 H       1  UNL1        0.053090
     19 H          -1.2653    2.0237    0.8701 H       1  UNL1        0.045764
     20 H           0.0977    0.6753   -0.7004 H       1  UNL1        0.090275
     21 H          -0.2934   -1.5735    1.2874 H       1  UNL1        0.090939
     22 H          -1.4779   -2.7250   -0.5603 H       1  UNL1        0.053214
     23 H          -1.2589   -1.3265   -1.5924 H       1  UNL1        0.058724
     24 H          -2.8806   -1.4000    0.9931 H       1  UNL1        0.022765
     25 H          -3.5354   -1.3102   -0.6228 H       1  UNL1        0.030543
     26 H           0.9218    0.6004    2.0962 H       1  UNL1        0.290220
     27 H           1.1140   -1.6699   -1.2656 H       1  UNL1        0.289393
     28 H           1.1626   -2.7389   -0.0439 H       1  UNL1        0.320501
     29 H           1.3969    1.6254    0.9294 H       1  UNL1        0.322803
@<TRIPOS>BOND
     1    23     5    1
     2    27     8    1
     3    16     1    1
     4    20     3    1
     5    25     6    1
     6    22     5    1
     7     5     6    1
     8     5     4    1
     9     8    28    1
    10     8     4    1
    11     8     9    1
    12     6     1    1
    13     6    24    1
    14     1    17    1
    15     1     2    1
    16    11    13    1
    17    11     9    1
    18     4     3    1
    19     4    21    1
    20     3     2    1
    21     3     7    1
    22    15    13    2
    23    13    12    1
    24     9     7    1
    25     9    10    1
    26     2    19    1
    27     2    18    1
    28    29     7    1
    29     7    26    1
    30    12    10    1
    31    12    14    2
