@<TRIPOS>MOLECULE
*****
 11 10 0 0 0
SMALL
GASTEIGER

@<TRIPOS>ATOM
      1 PT         -1.8801    0.3618   -0.0991 Pt      1  UNL1        0.052371
      2 CL         -0.2060    1.9505    0.0389 Cl      1  UNL1       -0.407084
      3 CL         -3.5544   -1.2269   -0.2379 Cl      1  UNL1       -0.407413
      4 N          -3.3431    1.8152   -0.0620 N.4     1  UNL1       -0.492566
      5 N          -0.4175   -1.0922   -0.1360 N.4     1  UNL1       -0.502803
      6 H          -4.2499    1.3579   -0.1148 H       1  UNL1        0.280916
      7 H          -3.2979    2.3632    0.7896 H       1  UNL1        0.296241
      8 H          -0.5024   -1.7220    0.6538 H       1  UNL1        0.300267
      9 H          -0.4732   -1.6510   -0.9800 H       1  UNL1        0.299598
     10 H           0.4900   -0.6346   -0.0990 H       1  UNL1        0.283338
     11 H          -3.2486    2.4550   -0.8427 H       1  UNL1        0.297135
@<TRIPOS>BOND
     1     9     5    1
     2    11     4    1
     3     3     1    1
     4     5     1    1
     5     5    10    1
     6     5     8    1
     7     6     4    1
     8     1     4    1
     9     1     2    1
    10     4     7    1
