@<TRIPOS>MOLECULE
*****
 15 15 0 0 0
SMALL
GASTEIGER

@<TRIPOS>ATOM
      1 PT          0.3446   -0.3815   -0.0153 Pt      1  UNL1       -0.042307
      2 CL          1.7988    1.3500    0.4951 Cl      1  UNL1       -0.389866
      3 CL         -1.2633   -1.9741   -0.5249 Cl      1  UNL1       -0.406884
      4 N          -1.1486    1.0438   -0.0541 N.4     1  UNL1       -0.322952
      5 N           1.8191   -1.7690    0.0259 N.pl3   1  UNL1        0.140371
      6 C           3.1442   -1.5037   -0.2129 C.2     1  UNL1       -0.112684
      7 C           1.6144   -3.0420    0.2900 C.3     1  UNL1       -0.091327
      8 C           3.9458   -2.5900   -0.1321 C.2     1  UNL1       -0.186486
      9 S           3.0242   -3.9708    0.2560 S.3     1  UNL1        0.110927
     10 H          -0.7346    1.9459    0.1662 H       1  UNL1        0.234031
     11 H          -1.8730    0.8288    0.6215 H       1  UNL1        0.253570
     12 H           3.4365   -0.4871   -0.4222 H       1  UNL1        0.169697
     13 H           0.6302   -3.4423    0.4788 H       1  UNL1        0.189659
     14 H           5.0105   -2.6474   -0.2768 H       1  UNL1        0.194968
     15 H          -1.5847    1.0877   -0.9680 H       1  UNL1        0.259281
@<TRIPOS>BOND
     1    15     4    1
     2     3     1    1
     3    12     6    1
     4    14     8    1
     5     6     8    2
     6     6     5    1
     7     8     9    1
     8     4     1    1
     9     4    10    1
    10     4    11    1
    11     1     5    1
    12     1     2    1
    13     5     7    1
    14     9     7    1
    15     7    13    1
