@<TRIPOS>MOLECULE
*****
 16 16 0 0 0
SMALL
GASTEIGER

@<TRIPOS>ATOM
      1 PT         -1.8795    0.3944   -0.0019 Pt      1  UNL1       -0.049675
      2 O          -0.4198    1.7296   -0.0539 O.3     1  UNL1       -0.416014
      3 O          -0.4836   -0.9823   -0.0207 O.3     1  UNL1       -0.426103
      4 N          -3.1574    2.0919    0.0093 N.4     1  UNL1       -0.399627
      5 N          -3.1585   -1.2822    0.0494 N.4     1  UNL1       -0.436439
      6 C           0.7786    1.1576   -0.0784 C.2     1  UNL1        0.677119
      7 C           0.7767   -0.3668   -0.0606 C.3     1  UNL1        0.097991
      8 O           1.7985    1.8017   -0.1124 O.2     1  UNL1       -0.600939
      9 H          -2.4782    2.8500   -0.0207 H       1  UNL1        0.258815
     10 H          -3.7195    2.2257    0.8416 H       1  UNL1        0.241972
     11 H          -2.4611   -2.0265    0.0410 H       1  UNL1        0.255700
     12 H          -3.7614   -1.4177   -0.7533 H       1  UNL1        0.258209
     13 H           1.3808   -0.6701    0.8050 H       1  UNL1        0.018358
     14 H           1.3358   -0.6914   -0.9484 H       1  UNL1        0.019701
     15 H          -3.7209   -1.3991    0.8839 H       1  UNL1        0.258926
     16 H          -3.7652    2.2026   -0.7937 H       1  UNL1        0.242006
@<TRIPOS>BOND
     1    14     7    1
     2    16     4    1
     3    12     5    1
     4     8     6    2
     5     6     7    1
     6     6     2    1
     7     7     3    1
     8     7    13    1
     9     2     1    1
    10     3     1    1
    11     9     4    1
    12     1     4    1
    13     1     5    1
    14     4    10    1
    15    11     5    1
    16     5    15    1
