@<TRIPOS>MOLECULE
*****
 40 42 0 0 0
SMALL
GASTEIGER

@<TRIPOS>ATOM
      1 PT         -3.9005    0.5093    0.1116 Pt      1  UNL1       -0.030898
      2 O          -2.5541    1.6541   -0.8030 O.3     1  UNL1       -0.478364
      3 O          -2.7567   -1.1106    0.2943 O.3     1  UNL1       -0.437152
      4 C          -1.4381   -1.0500    0.2220 C.2     1  UNL1        0.701927
      5 C          -1.2614    1.3821   -0.7588 C.2     1  UNL1        0.736560
      6 C          -0.8034    0.3309    0.2394 C.3     1  UNL1       -0.192475
      7 O          -0.4750    1.9923   -1.4414 O.2     1  UNL1       -0.580945
      8 O          -0.7700   -2.0548    0.2042 O.2     1  UNL1       -0.573748
      9 N          -5.0281    2.2562   -0.2309 N.4     1  UNL1       -0.309279
     10 N          -5.2707   -0.8743    0.9386 N.4     1  UNL1       -0.401150
     11 C          -6.4590    2.1438   -0.5570 C.3     1  UNL1       -0.028423
     12 C          -6.4279   -1.1901    0.0793 C.3     1  UNL1        0.139721
     13 C          -7.5101   -0.1362    0.1275 C.3     1  UNL1        0.157648
     14 C          -7.1402    1.2927    0.4925 C.3     1  UNL1        0.457149
     15 O          -8.4122    1.8082    0.8216 O.3     1  UNL1       -0.488855
     16 O          -8.4388   -0.4395    1.1567 O.3     1  UNL1       -0.466137
     17 C          -9.0441    0.7873    1.5660 C.3     1  UNL1        0.299987
     18 C         -10.5421    0.8057    1.3435 C.3     1  UNL1        0.398028
     19 C         -10.9044    0.5409   -0.1064 C.3     1  UNL1       -0.448118
     20 C         -11.1294    2.1111    1.8530 C.3     1  UNL1       -0.498350
     21 H          -1.0036    0.7456    1.2331 H       1  UNL1        0.030942
     22 H           0.2704    0.2126    0.1394 H       1  UNL1        0.060346
     23 H          -4.4973    2.6893   -0.9859 H       1  UNL1        0.296235
     24 H          -5.5824   -0.6842    1.8865 H       1  UNL1        0.249014
     25 H          -6.5467    1.6975   -1.5478 H       1  UNL1        0.054517
     26 H          -6.9352    3.1257   -0.5923 H       1  UNL1        0.062608
     27 H          -6.8744   -2.1473    0.3582 H       1  UNL1        0.044974
     28 H          -6.0472   -1.2869   -0.9358 H       1  UNL1        0.044668
     29 H          -8.0246   -0.1181   -0.8451 H       1  UNL1       -0.002700
     30 H          -6.5070    1.2825    1.3959 H       1  UNL1       -0.025513
     31 H          -8.8133    0.9165    2.6362 H       1  UNL1        0.023760
     32 H         -10.9292   -0.0151    1.9562 H       1  UNL1       -0.020573
     33 H         -10.5210    1.3292   -0.7551 H       1  UNL1        0.107576
     34 H         -11.9856    0.5094   -0.2322 H       1  UNL1        0.112072
     35 H         -10.5044   -0.4118   -0.4513 H       1  UNL1        0.116845
     36 H         -12.2164    2.0965    1.7929 H       1  UNL1        0.130841
     37 H         -10.7764    2.9542    1.2589 H       1  UNL1        0.136971
     38 H         -10.8580    2.3000    2.8919 H       1  UNL1        0.101407
     39 H          -4.6445   -1.6797    0.9952 H       1  UNL1        0.286872
     40 H          -4.9113    2.8678    0.5720 H       1  UNL1        0.232014
@<TRIPOS>BOND
     1    25    11    1
     2     7     5    2
     3    23     9    1
     4    28    12    1
     5    29    13    1
     6     2     5    1
     7     2     1    1
     8     5     6    1
     9    33    19    1
    10    26    11    1
    11    11     9    1
    12    11    14    1
    13    35    19    1
    14    34    19    1
    15     9     1    1
    16     9    40    1
    17    19    18    1
    18    12    13    1
    19    12    27    1
    20    12    10    1
    21     1     3    1
    22     1    10    1
    23    13    14    1
    24    13    16    1
    25    22     6    1
    26     8     4    2
    27     4     6    1
    28     4     3    1
    29     6    21    1
    30    14    15    1
    31    14    30    1
    32    15    17    1
    33    10    39    1
    34    10    24    1
    35    16    17    1
    36    37    20    1
    37    18    17    1
    38    18    20    1
    39    18    32    1
    40    17    31    1
    41    36    20    1
    42    20    38    1
