@<TRIPOS>MOLECULE
*****
 26 28 0 0 0
SMALL
GASTEIGER

@<TRIPOS>ATOM
      1 C           5.0690    4.7689    9.3422 C.3     1  UNL1       -0.281336
      2 H           5.8220    4.0100    9.5843 H       1  UNL1        0.102115
      3 H           4.0663    4.3198    9.4450 H       1  UNL1        0.097235
      4 C           5.1592    5.9794   10.2805 C.3     1  UNL1        0.334603
      5 H           4.9523    5.6178   11.2980 H       1  UNL1        0.016110
      6 C           6.5319    6.6641   10.3126 C.3     1  UNL1       -0.271076
      7 H           7.3295    5.9633   10.5853 H       1  UNL1        0.098887
      8 C           4.3731    6.2496    7.4999 C.3     1  UNL1       -0.266579
      9 H           3.3346    5.8766    7.5083 H       1  UNL1        0.093481
     10 H           4.6456    6.5122    6.4710 H       1  UNL1        0.097314
     11 C           4.1057    7.0087    9.8584 C.3     1  UNL1       -0.474199
     12 H           3.0996    6.5646    9.8812 H       1  UNL1        0.116787
     13 CL          7.3953    3.9736    6.1894 Cl      1  UNL1       -0.394196
     14 CL          9.3678    6.5265    7.4982 Cl      1  UNL1       -0.394903
     15 N           5.2902    5.1703    7.9336 N.4     1  UNL1        0.190800
     16 H           5.1862    4.3578    7.3192 H       1  UNL1        0.156907
     17 PT          7.2235    5.7283    7.6571 Pt      1  UNL1       -0.048345
     18 N           6.8773    7.2250    8.9858 N.4     1  UNL1        0.186875
     19 H           6.5013    7.4756   11.0598 H       1  UNL1        0.094412
     20 C           4.4636    7.4596    8.4384 C.3     1  UNL1        0.329076
     21 H           4.1037    7.8656   10.5480 H       1  UNL1        0.116447
     22 C           5.8363    8.1440    8.4697 C.3     1  UNL1       -0.268842
     23 H           3.7372    8.2035    8.0807 H       1  UNL1        0.017220
     24 H           6.1534    8.4641    7.4704 H       1  UNL1        0.098117
     25 H           5.7709    9.0310    9.1227 H       1  UNL1        0.094074
     26 H           7.7768    7.7113    9.0367 H       1  UNL1        0.159017
@<TRIPOS>BOND
     1    13    17    1
     2    10     8    1
     3    16    15    1
     4    24    22    1
     5    14    17    1
     6     8     9    1
     7     8    15    1
     8     8    20    1
     9    17    15    1
    10    17    18    1
    11    15     1    1
    12    23    20    1
    13    20    22    1
    14    20    11    1
    15    22    18    1
    16    22    25    1
    17    18    26    1
    18    18     6    1
    19     1     3    1
    20     1     2    1
    21     1     4    1
    22    11    12    1
    23    11     4    1
    24    11    21    1
    25     4     6    1
    26     4     5    1
    27     6     7    1
    28     6    19    1
