@<TRIPOS>MOLECULE
*****
 35 37 0 0 0
SMALL
GASTEIGER

@<TRIPOS>ATOM
      1 PT          1.0454    2.1731    0.0804 Pt      1  UNL1        0.157746
      2 H           0.4715   -0.0283    1.3380 H       1  UNL1        0.310460
      3 H           0.1459    3.9138    1.7692 H       1  UNL1        0.315339
      4 H          -0.4245    1.4861    2.8291 H       1  UNL1        0.093419
      5 N          -0.1128    0.6962    0.9176 N.4     1  UNL1       -0.404314
      6 N          -0.2894    3.4630    0.9619 N.4     1  UNL1       -0.411638
      7 O           2.2783    0.8178   -0.6570 O.3     1  UNL1       -0.483705
      8 O           2.0857    3.6943   -0.6297 O.3     1  UNL1       -0.497666
      9 C          -1.0105    1.3311    1.9130 C.3     1  UNL1        0.023039
     10 C          -1.4792    2.6737    1.3618 C.3     1  UNL1       -0.018441
     11 C           2.8321    1.0167   -1.8411 C.2     1  UNL1        0.539792
     12 C           2.7078    3.5576   -1.7861 C.2     1  UNL1        0.587110
     13 H          -1.8704    0.6913    2.1593 H       1  UNL1        0.055080
     14 H          -2.0856    2.5176    0.4594 H       1  UNL1        0.103318
     15 H          -2.0954    3.2030    2.1033 H       1  UNL1        0.064655
     16 O           3.6139    0.2260   -2.3230 O.2     1  UNL1       -0.511617
     17 C           2.3889    2.2857   -2.5938 C.3     1  UNL1        0.249103
     18 O           3.4734    4.4034   -2.2008 O.2     1  UNL1       -0.528656
     19 H           1.2887    2.2293   -2.6414 H       1  UNL1       -0.074376
     20 C           2.9611    2.3469   -4.0112 C.3     1  UNL1       -0.509020
     21 H           3.0711    1.3188   -4.3746 H       1  UNL1        0.130029
     22 C           2.0741    3.1381   -4.9454 C.ar    1  UNL1        0.342210
     23 H           3.9614    2.7920   -3.9585 H       1  UNL1        0.138475
     24 C           2.1743    4.5297   -5.0521 C.ar    1  UNL1       -0.315713
     25 C           1.0968    2.4828   -5.7022 C.ar    1  UNL1       -0.240768
     26 H           2.9232    5.0475   -4.4532 H       1  UNL1        0.189038
     27 C           1.3210    5.2411   -5.8937 C.ar    1  UNL1       -0.084867
     28 C           0.2399    3.1910   -6.5428 C.ar    1  UNL1       -0.133554
     29 H           1.0134    1.3951   -5.6351 H       1  UNL1        0.129460
     30 H           1.4168    6.3263   -5.9670 H       1  UNL1        0.114560
     31 C           0.3497    4.5766   -6.6413 C.ar    1  UNL1       -0.173521
     32 H          -0.5111    2.6576   -7.1292 H       1  UNL1        0.121723
     33 H          -0.3149    5.1358   -7.3026 H       1  UNL1        0.122675
     34 H          -0.6464    0.2326    0.1802 H       1  UNL1        0.295652
     35 H          -0.5304    4.2161    0.3162 H       1  UNL1        0.304976
@<TRIPOS>BOND
     1    33    31    1
     2    32    28    1
     3    31    28   ar
     4    31    27   ar
     5    28    25   ar
     6    30    27    1
     7    27    24   ar
     8    25    29    1
     9    25    22   ar
    10    24    22   ar
    11    24    26    1
    12    22    20    1
    13    21    20    1
    14    20    23    1
    15    20    17    1
    16    19    17    1
    17    17    11    1
    18    17    12    1
    19    16    11    2
    20    18    12    2
    21    11     7    1
    22    12     8    1
    23     7     1    1
    24     8     1    1
    25     1     5    1
    26     1     6    1
    27    34     5    1
    28    35     6    1
    29    14    10    1
    30     5     2    1
    31     5     9    1
    32     6    10    1
    33     6     3    1
    34    10     9    1
    35    10    15    1
    36     9    13    1
    37     9     4    1
