@<TRIPOS>MOLECULE
*****
 25 26 0 0 0
SMALL
GASTEIGER

@<TRIPOS>ATOM
      1 PT          5.6511    3.5437    2.3218 Pt      1  UNL1       -0.035214
      2 I           6.1252    3.9212    4.8118 I       1  UNL1       -0.346551
      3 I           6.4538    5.8442    1.5285 I       1  UNL1       -0.339071
      4 N           5.1639    3.0404    0.3698 N.4     1  UNL1       -0.438647
      5 H           4.3124    3.5419    0.1074 H       1  UNL1        0.246107
      6 N           4.9784    1.6236    2.7302 N.4     1  UNL1       -0.466188
      7 H           5.7868    1.0317    2.9337 H       1  UNL1        0.254037
      8 H           4.4123    1.6195    3.5806 H       1  UNL1        0.258251
      9 C           4.9664    1.5751    0.2902 C.3     1  UNL1        0.385710
     10 H           5.9745    1.1313    0.3065 H       1  UNL1        0.001158
     11 C           4.2313    1.1213    1.5541 C.3     1  UNL1        0.387779
     12 H           3.2527    1.6267    1.5776 H       1  UNL1        0.000381
     13 C           4.2275    1.1271   -0.9671 C.3     1  UNL1       -0.248479
     14 C           4.0296   -0.3909    1.5590 C.3     1  UNL1       -0.242039
     15 H           3.2485    1.6358   -1.0021 H       1  UNL1        0.065011
     16 C           4.0202   -0.3892   -0.9669 C.3     1  UNL1       -0.051149
     17 H           4.7875    1.4464   -1.8584 H       1  UNL1        0.071588
     18 C           3.2921   -0.8477    0.2979 C.3     1  UNL1       -0.061778
     19 H           3.4790   -0.6877    2.4638 H       1  UNL1        0.069136
     20 H           5.0183   -0.8792    1.6087 H       1  UNL1        0.064747
     21 H           3.4582   -0.6888   -1.8623 H       1  UNL1        0.057683
     22 H           5.0009   -0.8896   -1.0282 H       1  UNL1        0.029118
     23 H           3.1865   -1.9414    0.3038 H       1  UNL1        0.060170
     24 H           2.2708   -0.4321    0.3042 H       1  UNL1        0.032594
     25 H           5.8874    3.3704   -0.2716 H       1  UNL1        0.245647
@<TRIPOS>BOND
     1    21    16    1
     2    17    13    1
     3    22    16    1
     4    15    13    1
     5    13    16    1
     6    13     9    1
     7    16    18    1
     8    25     4    1
     9     5     4    1
    10     9    10    1
    11     9     4    1
    12     9    11    1
    13    18    23    1
    14    18    24    1
    15    18    14    1
    16     4     1    1
    17     3     1    1
    18    11    14    1
    19    11    12    1
    20    11     6    1
    21    14    20    1
    22    14    19    1
    23     1     6    1
    24     1     2    1
    25     6     7    1
    26     6     8    1
