@<TRIPOS>MOLECULE
*****
 27 28 0 0 0
SMALL
GASTEIGER

@<TRIPOS>ATOM
      1 PT          8.3463    2.4201    5.3881 Pt      1  UNL1       -0.042498
      2 CL          8.0769    1.8020    7.5503 Cl      1  UNL1       -0.292318
      3 N           8.5806    2.9410    3.3830 N.4     1  UNL1       -0.396317
      4 H           9.5419    2.7769    3.0735 H       1  UNL1        0.217054
      5 H           7.9842    2.3729    2.7778 H       1  UNL1        0.276703
      6 H           8.3755    3.9157    3.1586 H       1  UNL1        0.280202
      7 N           9.7778    1.0481    5.1654 N.ar    1  UNL1       -0.126509
      8 N           6.8342    3.7633    5.7475 N.4     1  UNL1       -0.377230
      9 H           6.0042    3.6625    5.1614 H       1  UNL1        0.271911
     10 H           6.5424    3.5767    6.7139 H       1  UNL1        0.250062
     11 H           7.1173    4.7440    5.7131 H       1  UNL1        0.274922
     12 C          12.0590    0.3723    4.6934 C.ar    1  UNL1       -0.016075
     13 C          11.4963    2.7445    4.9210 C.ar    1  UNL1       -0.291271
     14 H          10.7658    3.5124    5.1756 H       1  UNL1        0.161425
     15 C          11.0951    1.3845    4.9241 C.ar    1  UNL1        0.362597
     16 C           9.4346   -0.2294    5.2571 C.ar    1  UNL1        0.118392
     17 C          11.6499   -0.9830    4.7682 C.ar    1  UNL1       -0.054618
     18 C          13.4027    0.7468    4.4181 C.ar    1  UNL1       -0.153275
     19 C          12.8035    3.0719    4.6566 C.ar    1  UNL1       -0.052293
     20 H           8.3892   -0.4235    5.4932 H       1  UNL1        0.127386
     21 C          10.3459   -1.2831    5.0650 C.ar    1  UNL1       -0.243050
     22 H          12.3839   -1.7728    4.6010 H       1  UNL1        0.169703
     23 H          14.1371   -0.0392    4.2382 H       1  UNL1        0.163742
     24 C          13.7668    2.0672    4.3907 C.ar    1  UNL1       -0.134367
     25 H          13.1097    4.1185    4.6698 H       1  UNL1        0.149939
     26 H           9.9948   -2.3097    5.1530 H       1  UNL1        0.190895
     27 H          14.7989    2.3497    4.1838 H       1  UNL1        0.164887
@<TRIPOS>BOND
     1     5     3    1
     2     4     3    1
     3     6     3    1
     4     3     1    1
     5    27    24    1
     6    23    18    1
     7    24    18   ar
     8    24    19   ar
     9    18    12   ar
    10    22    17    1
    11    19    25    1
    12    19    13   ar
    13    12    17   ar
    14    12    15   ar
    15    17    21   ar
    16    13    15   ar
    17    13    14    1
    18    15     7   ar
    19    21    26    1
    20    21    16   ar
    21     9     8    1
    22     7    16   ar
    23     7     1    1
    24    16    20    1
    25     1     8    1
    26     1     2    1
    27    11     8    1
    28     8    10    1
