@<TRIPOS>MOLECULE
*****
 11 10 0 0 0
SMALL
GASTEIGER

@<TRIPOS>ATOM
      1 PT          2.3516    3.0082    4.0112 Pt      1  UNL1        0.107133
      2 CL          0.9943    1.1561    3.8581 Cl      1  UNL1       -0.433139
      3 CL          3.7081    4.8603    4.1649 Cl      1  UNL1       -0.433011
      4 N           3.3972    2.1019    5.4898 N.4     1  UNL1       -0.512472
      5 N           1.3054    3.9153    2.5326 N.4     1  UNL1       -0.523760
      6 H           4.3724    1.9721    5.2202 H       1  UNL1        0.300579
      7 H           0.3297    4.0431    2.8015 H       1  UNL1        0.303659
      8 H           2.9872    1.1889    5.6964 H       1  UNL1        0.292201
      9 H           1.7141    4.8292    2.3279 H       1  UNL1        0.295254
     10 H           3.3953    2.6663    6.3396 H       1  UNL1        0.300089
     11 H           1.3090    3.3521    1.6820 H       1  UNL1        0.303466
@<TRIPOS>BOND
     1    11     5    1
     2     9     5    1
     3     5     7    1
     4     5     1    1
     5     2     1    1
     6     1     3    1
     7     1     4    1
     8     6     4    1
     9     4     8    1
    10     4    10    1
