@<TRIPOS>MOLECULE
*****
 16 16 0 0 0
SMALL
GASTEIGER

@<TRIPOS>ATOM
      1 PT          2.1460    0.3848    9.6497 Pt      1  UNL1        0.028490
      2 N           2.7368    0.0178   11.5881 N.4     1  UNL1       -0.479450
      3 H           2.8738    0.8317   12.1859 H       1  UNL1        0.270977
      4 N           0.2721    1.2621    9.8203 N.4     1  UNL1       -0.468250
      5 H           0.0287    1.4209    8.8371 H       1  UNL1        0.281273
      6 H           0.2405    2.1675   10.2874 H       1  UNL1        0.261153
      7 O           1.8595    0.6057    7.7224 O.3     1  UNL1       -0.435043
      8 C           2.8970    0.1594    7.0150 C.2     1  UNL1        0.623403
      9 H           4.9522    0.1919    7.5682 H       1  UNL1        0.033433
     10 O           2.9311    0.1956    5.8053 O.2     1  UNL1       -0.563503
     11 O           3.8685   -0.4099    9.2366 O.3     1  UNL1       -0.433967
     12 C           4.0624   -0.4055    7.8418 C.3     1  UNL1        0.043447
     13 H           4.2427   -1.4296    7.4668 H       1  UNL1        0.035224
     14 H           2.1839   -0.6614   12.1093 H       1  UNL1        0.271420
     15 H           3.6592   -0.3999   11.4163 H       1  UNL1        0.269424
     16 H          -0.4635    0.6821   10.2221 H       1  UNL1        0.261970
@<TRIPOS>BOND
     1    10     8    2
     2     8     7    1
     3     8    12    1
     4    13    12    1
     5     9    12    1
     6     7     1    1
     7    12    11    1
     8     5     4    1
     9    11     1    1
    10     1     4    1
    11     1     2    1
    12     4    16    1
    13     4     6    1
    14    15     2    1
    15     2    14    1
    16     2     3    1
