@<TRIPOS>MOLECULE
*****
 21 21 0 0 0
SMALL
GASTEIGER

@<TRIPOS>ATOM
      1 PT          2.1288    7.4340    7.6630 Pt      1  UNL1       -0.002059
      2 BR          0.7866    9.0953    8.7903 Br      1  UNL1       -0.343838
      3 BR          3.9027    7.4884    9.3051 Br      1  UNL1       -0.363757
      4 N           0.6416    7.3412    6.2747 N.pl3   1  UNL1       -0.083397
      5 N           3.2920    5.9873    6.7138 N.4     1  UNL1       -0.370654
      6 C          -0.5380    8.1947    4.3955 C.2     1  UNL1       -0.308534
      7 C           1.6247    9.2715    5.1526 C.3     1  UNL1       -0.513144
      8 C           0.5501    8.2347    5.2685 C.2     1  UNL1        0.391360
      9 C          -0.3313    6.4294    6.4537 C.2     1  UNL1       -0.001871
     10 H          -0.5929    8.9253    3.5894 H       1  UNL1        0.175934
     11 H           2.6178    8.8033    5.1387 H       1  UNL1        0.154860
     12 H          -0.2011    5.7718    7.3121 H       1  UNL1        0.146157
     13 H           3.5489    6.2076    5.7516 H       1  UNL1        0.249173
     14 H           2.8650    5.0605    6.7146 H       1  UNL1        0.251486
     15 H           4.1518    5.9339    7.2715 H       1  UNL1        0.213211
     16 C          -1.5380    7.2478    4.5684 C.3     1  UNL1       -0.002409
     17 H           1.4895    9.8758    4.2473 H       1  UNL1        0.144228
     18 H           1.5952    9.9172    6.0417 H       1  UNL1        0.176209
     19 C          -1.4343    6.3441    5.6228 C.2     1  UNL1       -0.215314
     20 H          -2.3947    7.2201    3.8938 H       1  UNL1        0.139225
     21 H          -2.1979    5.5914    5.8129 H       1  UNL1        0.163138
@<TRIPOS>BOND
     1    10     6    1
     2    20    16    1
     3    17     7    1
     4     6    16    1
     5     6     8    2
     6    16    19    1
     7    11     7    1
     8     7     8    1
     9     7    18    1
    10     8     4    1
    11    19    21    1
    12    19     9    2
    13    13     5    1
    14     4     9    1
    15     4     1    1
    16     9    12    1
    17     5    14    1
    18     5    15    1
    19     5     1    1
    20     1     2    1
    21     1     3    1
