@<TRIPOS>MOLECULE
*****
 26 25 0 0 0
SMALL
GASTEIGER

@<TRIPOS>ATOM
      1 PT         -2.1852    1.0171   -0.1849 Pt      1  UNL1       -0.097859
      2 CL         -0.9290    2.3701    1.1929 Cl      1  UNL1       -0.436715
      3 CL         -3.4435   -0.3049   -1.5987 Cl      1  UNL1       -0.421131
      4 N          -3.3749    2.5813   -0.6827 N.4     1  UNL1       -0.278565
      5 N          -0.9446   -0.5152    0.3316 N.4     1  UNL1        0.265718
      6 C          -0.1283   -0.9822   -0.8060 C.3     1  UNL1       -0.347452
      7 C          -1.6436   -1.6317    0.9962 C.3     1  UNL1       -0.355942
      8 C          -4.3308    3.0500    0.3598 C.3     1  UNL1        0.499435
      9 C          -5.0416    4.3121   -0.1161 C.3     1  UNL1       -0.578424
     10 C          -5.3025    1.9285    0.6955 C.3     1  UNL1       -0.515122
     11 H          -3.8958    2.3130   -1.5222 H       1  UNL1        0.239265
     12 H           0.4314   -0.1308   -1.2096 H       1  UNL1        0.120942
     13 H          -0.8010   -1.3681   -1.5800 H       1  UNL1        0.144715
     14 H           0.5691   -1.7711   -0.4826 H       1  UNL1        0.107152
     15 H          -2.1729   -1.2442    1.8742 H       1  UNL1        0.125262
     16 H          -0.9251   -2.4078    1.3037 H       1  UNL1        0.104096
     17 H          -2.3739   -2.0501    0.2950 H       1  UNL1        0.153188
     18 H          -3.7102    3.2776    1.2369 H       1  UNL1        0.011130
     19 H          -5.7145    4.6893    0.6661 H       1  UNL1        0.159120
     20 H          -5.6482    4.1067   -1.0125 H       1  UNL1        0.137341
     21 H          -4.3247    5.1115   -0.3566 H       1  UNL1        0.126318
     22 H          -6.0156    2.2682    1.4592 H       1  UNL1        0.126468
     23 H          -4.7667    1.0478    1.0710 H       1  UNL1        0.143454
     24 H          -5.8692    1.6199   -0.1963 H       1  UNL1        0.140359
     25 H          -0.3185   -0.0787    1.0120 H       1  UNL1        0.174247
     26 H          -2.7686    3.3599   -0.9443 H       1  UNL1        0.253001
@<TRIPOS>BOND
     1     3     1    1
     2    13     6    1
     3    11     4    1
     4    12     6    1
     5    20     9    1
     6    26     4    1
     7     6    14    1
     8     6     5    1
     9     4     1    1
    10     4     8    1
    11    21     9    1
    12    24    10    1
    13     1     5    1
    14     1     2    1
    15     9     8    1
    16     9    19    1
    17    17     7    1
    18     5     7    1
    19     5    25    1
    20     8    10    1
    21     8    18    1
    22    10    23    1
    23    10    22    1
    24     7    16    1
    25     7    15    1
