@<TRIPOS>MOLECULE
*****
 15 15 0 0 0
SMALL
GASTEIGER

@<TRIPOS>ATOM
      1 PT          0.3546   -0.3777   -0.0119 Pt      1  UNL1       -0.000206
      2 CL          1.8146    1.3411    0.4743 Cl      1  UNL1       -0.416933
      3 CL         -1.2667   -1.9545   -0.4804 Cl      1  UNL1       -0.435480
      4 N          -1.1147    1.0147   -0.0564 N.4     1  UNL1       -0.319761
      5 N           1.8027   -1.7529    0.0310 N.pl3   1  UNL1        0.141861
      6 C           3.1363   -1.4953   -0.2403 C.2     1  UNL1       -0.144767
      7 C           1.5962   -3.0164    0.3263 C.3     1  UNL1       -0.121994
      8 C           3.9328   -2.5899   -0.1480 C.2     1  UNL1       -0.218291
      9 S           3.0018   -3.9658    0.2922 S.3     1  UNL1        0.126374
     10 H          -0.7628    1.9057    0.2989 H       1  UNL1        0.239616
     11 H          -1.9168    0.7163    0.4988 H       1  UNL1        0.251337
     12 H           3.4270   -0.4771   -0.4790 H       1  UNL1        0.197305
     13 H           0.6040   -3.4036    0.5429 H       1  UNL1        0.224436
     14 H           5.0039   -2.6534   -0.3110 H       1  UNL1        0.219734
     15 H          -1.4487    1.1569   -1.0099 H       1  UNL1        0.256769
@<TRIPOS>BOND
     1    15     4    1
     2     3     1    1
     3    12     6    1
     4    14     8    1
     5     6     8    2
     6     6     5    1
     7     8     9    1
     8     4     1    1
     9     4    10    1
    10     4    11    1
    11     1     5    1
    12     1     2    1
    13     5     7    1
    14     9     7    1
    15     7    13    1
