@<TRIPOS>MOLECULE
*****
 26 25 0 0 0
SMALL
GASTEIGER

@<TRIPOS>ATOM
      1 PT         -3.3613   -0.2575   -0.0400 Pt      1  UNL1        0.539401
      2 CL         -1.6927    1.2117    0.4951 Cl      1  UNL1       -0.299802
      3 CL         -2.0479   -2.1171    0.2028 Cl      1  UNL1       -0.294291
      4 N          -4.8561   -1.5832   -0.4631 N.4     1  UNL1       -0.419035
      5 N          -4.5376    1.4022   -0.1619 N.4     1  UNL1       -0.462669
      6 O          -3.9583   -0.3231    1.8217 O.3     1  UNL1       -0.649264
      7 O          -3.2988   -0.1563   -2.0515 O.3     1  UNL1       -0.490170
      8 C          -2.3277   -0.3310   -2.9432 C.2     1  UNL1        0.509778
      9 C          -0.8952   -0.1289   -2.4929 C.3     1  UNL1        0.127988
     10 C           0.0856   -0.5641   -3.5680 C.3     1  UNL1       -0.403594
     11 C           1.5029   -0.1121   -3.2835 C.2     1  UNL1        0.654695
     12 O           2.4366   -0.5770   -4.1563 O.3     1  UNL1       -0.537930
     13 O           1.8320    0.6112   -2.3840 O.2     1  UNL1       -0.448928
     14 O          -2.6136   -0.5900   -4.0953 O.2     1  UNL1       -0.502740
     15 H          -5.6540   -1.5109    0.1672 H       1  UNL1        0.303998
     16 H          -4.4361   -2.5099   -0.3457 H       1  UNL1        0.248283
     17 H          -5.0837    1.4453    0.7017 H       1  UNL1        0.295543
     18 H          -5.1233    1.4443   -0.9953 H       1  UNL1        0.303916
     19 H          -3.1669   -0.3166    2.3772 H       1  UNL1        0.346647
     20 H          -0.7108   -0.6554   -1.5506 H       1  UNL1        0.017939
     21 H          -0.7525    0.9352   -2.2598 H       1  UNL1        0.027350
     22 H          -0.2256   -0.1583   -4.5426 H       1  UNL1        0.111581
     23 H           0.0738   -1.6594   -3.6854 H       1  UNL1        0.105065
     24 H           2.0005   -1.1362   -4.8135 H       1  UNL1        0.380710
     25 H          -5.1205   -1.4713   -1.4448 H       1  UNL1        0.275326
     26 H          -3.8951    2.1993   -0.1693 H       1  UNL1        0.260203
@<TRIPOS>BOND
     1    24    12    1
     2    22    10    1
     3    12    11    1
     4    14     8    2
     5    23    10    1
     6    10    11    1
     7    10     9    1
     8    11    13    2
     9     8     9    1
    10     8     7    1
    11     9    21    1
    12     9    20    1
    13     7     1    1
    14    25     4    1
    15    18     5    1
    16     4    16    1
    17     4     1    1
    18     4    15    1
    19    26     5    1
    20     5     1    1
    21     5    17    1
    22     1     3    1
    23     1     2    1
    24     1     6    1
    25     6    19    1
